Circuit: * E:\Dropbox\MISiS\Digital BH-loop\Wheatstone_Calculator_LTspice\Wheatstone_Calculator.asc

Direct Newton iteration for .op point succeeded.

Date: Tue Oct 17 18:56:56 2023
Total elapsed time: 0.021 seconds.

tnom = 27
temp = 27
method = trap
totiter = 3
traniter = 0
tranpoints = 0
accept = 0
rejected = 0
matrix size = 5
fillins = 0
solver = Normal
Matrix Compiler1: 230 bytes object code size
Matrix Compiler2: 355 bytes object code size
