Circuit: * E:\Dropbox\MISiS\Digital BH-loop\Wheatstone_Calculator_LTspice_Vw_V0\Wheatstone_Calculator_Vw_V0.asc

Direct Newton iteration for .op point succeeded.

Date: Tue Oct 17 21:43:14 2023
Total elapsed time: 0.048 seconds.

tnom = 27
temp = 27
method = trap
totiter = 3
traniter = 0
tranpoints = 0
accept = 0
rejected = 0
matrix size = 5
fillins = 3
solver = Normal
Matrix Compiler1: 342 bytes object code size
Matrix Compiler2: 403 bytes object code size
